-- <@> JewelSuite(TM) ECLIPSE Deck Builder

-- <+> Start of deck ECL

NOECHO
-- <+> RUNSPEC Section

RUNSPEC
TITLE
VEM

-- ascii formatted output
--FMTOUT
UNIFOUT

DIMENS
    92 92 1  /

METRIC
OIL
WATER
NUMRES
    1 /

TABDIMS
    2*    24 2*    20    20 1*     1 1* /
EQLDIMS
    2* 100 2* /
REGDIMS
    6* /
WELLDIMS
       16   100     4    16     0     0     0     0     0     0     0     0 /
VFPPDIMS
    6* /
VFPIDIMS
    3* /
AQUDIMS
    2*     1 3* /
NSTACK
 -75 /
START
1 JAN 2011 /

-- <-> RUNSPEC Section

-- <+> GRID Section

GRID 


SPECGRID
    92 92 1 1 F /

DX
    8464*50 /


DY
    8464*50 /


DZ
    8464*10 /

TOPS
    8464*4000 /

INCLUDE
PermiabilityMap.INC
/

COPY
 'PERMX' 'PERMY'  1 92 1 92 1 1 /
 'PERMX' 'PERMZ'  1 92 1 92 1 1 /
/

NTG
  8464*1 /

INCLUDE
PorosityMap.INC 
/

ECHO

INIT
/

-- <-> GRID Section


-- <+> PROPS Section

PROPS

DENSITY
     900 1000          1 /
PVCDO
    400          1 1.000E-05          5          0
    /

PVTW
    400          1 1.000E-05        1          0 /

ROCK
    400          0 /

SWOF
      0.1000,  0.0000e+00,  8.0000e-01  0
      0.2000,  0,  8.0000e-01  0
      0.2500,  2.7310e-04,  5.8082e-01  0
	0.3000,  2.1848e-03,  4.1010e-01  0
	0.3500,  7.3737e-03,  2.8010e-01  0
	0.4000,  1.7478e-02,  1.8378e-01  0
	0.4500,  3.4138e-02,  1.1473e-01  0
	0.5000,  5.8990e-02,  6.7253e-02  0
	0.5500,  9.3673e-02,  3.6301e-02  0
	0.6000,  1.3983e-01,  1.7506e-02  0
	0.6500,  1.9909e-01,  7.1706e-03  0
	0.7000,  2.7310e-01,  2.2688e-03  0
	0.7500,  3.6350e-01,  4.4820e-04  0
	0.8000,  4.7192e-01,  2.8000e-05  0
	0.8500,  6.0000e-01,  0.0000e+00  0
	0.9000,  7.4939e-01,  0.0000e+00  0
	       
/



-- <-> PROPS Section

-- <+> REGIONS Section

REGIONS

-- <-> REGIONS Section

-- <+> SOLUTION Section

SOLUTION
EQUIL
       4000  500    5000          0 /

RPTSOL
 RESTART=2 /
/

-- <-> SOLUTION Section

-- <+> SUMMARY Section
SUMMARY
    FOPR 
    FOPT 
    WWPR '*' 
    //
    WOPR '*'
    
    /
RUNSUM
DATE
RPTONLY
-- <-> SUMMARY Section

-- <+> SCHEDULE Section

SCHEDULE


-- <+> SCHEDULE 7/7/2011 (0 days)

RPTSCHED
    FIP WELSPECS WELLS /

RPTRST
   BASIC=2/

WELSPECS
'INJECT1' '1'   18	90	1*	'WATER' /
'INJECT2' '1'   40	90	1*	'WATER' /
'INJECT3' '1'   2	75	1*	'WATER' /
'INJECT4' '1'   2	60	1*	'WATER' /
'INJECT5' '1'   2	25	1*	'WATER' /

'PROD1' '1'   90	40	1*	'OIL' /
'PROD2' '1'   53	40	1*	'OIL' /
'PROD3' '1'   58	2	1*	'OIL' /
'PROD4' '1'   40	2	1*	'OIL' /


/

COMPDAT
     'INJECT1'    2*    1     1 'OPEN' 2*     0.2        1*          0 /
    'INJECT2'    2*    1     1 'OPEN' 2*     0.2        1*          0 /
    'INJECT3'    2*    1     1 'OPEN' 2*     0.2        1*          0 /
    'INJECT4'    2*    1     1 'OPEN' 2*     0.2        1*          0 /
    'INJECT5'    2*    1     1 'OPEN' 2*     0.2        1*          0 /


	'PROD1'      2*    1     1 'OPEN' 2*     0.2        1*          0 /
	'PROD2'      2*    1     1 'OPEN' 2*     0.2        1*          0 /
     'PROD3'      2*    1     1 'OPEN' 2*     0.2        1*          0 /
	'PROD4'      2*    1     1 'OPEN' 2*     0.2        1*          0 /

/



WCONPROD
	'PROD1' 'OPEN' 'BHP' 5*  400/
	'PROD2' 'OPEN' 'BHP' 5*  400/
	'PROD3' 'OPEN' 'BHP' 5*  400/
	'PROD4' 'OPEN' 'BHP' 5*  400/

/



INCLUDE
  SCHEDULE_NEW.INC /

-- END OF DECK 

-- <@> JewelSuite(TM) ECLIPSE Deck Builder
